YEAR: 2024
COPYRIGHT HOLDER: QSWATPlus Contributors
